LTspice 24.0.9 for Windows
Circuit: * C:\Users\evan6\Documents\Projects\audio\plugnslay\sim\plugnslay.asc
Start Time: Tue Aug 20 17:51:21 2024
solver = Normal
Maximum thread count: 24
tnom = 27
temp = 27
method = modified trap
WARNING: Specified period is not longer than the sum of Trise, Tfall, and Ton for v1.  Increasing period to 10.0002
Per .tran options, skipping operating point for transient analysis.
Heightened Def Con from 0.0181873 to 0.0181873
Heightened Def Con from 0.300001 to 0.300001
Heightened Def Con from 0.350001 to 0.350001
Heightened Def Con from 0.400001 to 0.400001
Heightened Def Con from 0.650004 to 0.650004
Heightened Def Con from 0.650004 to 0.650004
Heightened Def Con from 0.650004 to 0.650004
Heightened Def Con from 0.700004 to 0.700004
Heightened Def Con from 0.700004 +to 0.700004
Heightened Def Con from 0.700004 to 0.700004
Heightened Def Con from 0.700004 to 0.700004
Heightened Def Con from 0.700004 to 0.700004
Heightened Def Con from 0.700004 to 0.700004
Heightened Def Con from 0.700004 to 0.700004
Heightened Def Con from 0.700004 to 0.700004
Heightened Def Con from 0.750004 to 0.750004
Heightened Def Con from 0.750005 to 0.750005
Heightened Def Con from 0.773732 to 0.773732
Heightened Def Con from 1.00853 to 1.00853
Heightened Def Con from 1.00859 to 1.00859
Total elapsed time: 7.892 seconds.

